 nc_newport_river_core_cr4_bath ! 30 CHARACTER ALPHANUM RUN DESCRIPTION
 v31.06 iterative          ! 20 CHARACTER ALPANUMERIC RUN IDENTIFICATION
 1                         ! NFOVER - NONFATAL ERROR OVERRIDE OPTION
 0                         ! NABOUT - ABREVIATED OUTPUT OPTION PARAMETER
 1                         ! NSCREEN - UNIT 6 OUTPUT OPTION PARAMETER
 0                         ! IHOT - HOT START PARAMETER
 2                         ! ICS - COORDINATE SYSTEM SELECTION PARAMETER
 0                         ! IM - MODEL TYPE (0 INDICATES STANDARD DEPTH INTEGRATED MODEL)
 2                         ! NOLIBF - BOTTOM FRICTION TERM SELECTION PARAMETER
 2                         ! NOLIFA - FINITE AMPLITUDE TERM SELECTION PARAMETER
 1                         ! NOLICA - SPATIAL DERIVATIVE PORTION OF CONV. TERM SELECTION PARAMETER
 1                         ! NOLICAT - TIME DERIVATIVE PORTION OF CONVECTIVE TERM SELECTION PARAMETER
 1                         ! NWP - VARIABLE BOTTOM FRICTION AND LATERAL VISCOSITY OPTION PARAMETER
primitive_weighting_in_continuity_equation
 1                         ! NCOR - VARIABLE CORIOLIS IN SPACE OPTION PARAMETER
 0                         ! NTIP - TIDAL POTENTIAL OPTION PARAMETER
 0                         ! NWS - WIND STRESS AND BAROMETRIC PRESSURE OPTION PARAMETER
 1                         ! NRAMP - RAMP FUNCTION OPTION
 9.81                      ! G - ACCELERATION DUE TO GRAVITY - DETERMINES UNITS
 0.002                     ! TAU0 - WEIGHTING FACTOR IN GWCE
 5.0                       ! DT - TIME STEP (IN SECONDS)
 0.0                       ! STATIM - STARTING TIME (IN DAYS)
 0.0                       ! REFTIM - REFERENCE TIME (IN DAYS)
 40.0                      ! RNDAY - TOTAL LENGTH OF SIMULATION (IN DAYS)
 2.                        ! DRAMP - DURATION OF RAMP FUNCTION (IN DAYS)
 0.35 0.30 0.35            ! TIME WEIGHTING FACTORS FOR THE GWCE EQUATION
 0.02  10  10  0.02        ! H0 - MINIMUM CUTOFF DEPTH
 -76.0 33.0                ! SLAM0,SFEA0 - CENTER OF CPP PROJECTION IN DEGREES LONG/LAT
 0.0025 1.0 10. 0.3333     ! FFACTOR - BOTTOM FRICTION COEFFICIENT
 2.0                       ! ESL - LATERAL EDDY VISCOSITY COEFFICIENT; IGNORED IF NWP =1
 0.0                       ! CORI - CORIOLIS PARAMETER - IGNORED IF NCOR = 1
 0                         ! NUMBER OF TIDAL POTENTIAL CONSTITUENTS BEING FORCED
 5                         ! NBFR - TOTAL NUMBER OF FORCING FREQUENCIES ON OPEN BOUNDARIES
 K1                        ! ALPHANUMERIC DESCRIPTION OF OPEN BOUNDARY FORCING DATA SET FOLLOWING
 0.000072921158358   1.000  0.000
 O1
 0.000067597744151   1.000  0.000 
 M2                        
 0.000140518902509   1.000  0.000
 N2
 0.000137879699487   1.000  0.000
 S2
 0.000145444104333   1.000  0.000 
 K1 
      .0990   186.22      54  0
      .0990   186.22      54  0
      .0990   186.22      54  0
      .0990   186.22      54  0
      .0990   186.22      54  0
      .0991   186.06      52  0
      .0991   185.91      49  0
      .0991   185.74      46  0
      .0992   185.57      42  0
      .0992   185.41      38  0
      .0992   185.25      35  0
      .0993   185.07      31  0
      .0993   184.91      28  0
      .0993   184.76      26  0
      .0993   184.62      24  0
      .0992   184.48      22  0
      .0992   184.34      19  0
      .0992   184.20      17  0
      .0992   184.06      13  0
      .0991   183.90       7  0
      .0991   183.75       8  0
      .0990   183.67       4  0
      .0989   183.57       5  0
      .0988   183.48      15  0
      .0987   183.40      11  0
      .0986   183.34       1  0
      .0985   183.25       2  0
      .0984   183.15      33  0
      .0983   183.02      70  0
      .0980   182.87      89  0
      .0977   182.73     103  0
      .0975   182.60     112  0
      .0971   182.38     110  0
      .0968   182.19     139  0
      .0965   182.04     119  0
      .0961   182.04     117  0
      .0958   182.03     136  0
      .0954   182.03     134  0
      .0951   182.01     152  0
      .0947   182.00     150  0
      .0944   181.99     231  0
      .0939   181.97     202  0
      .0935   181.96     203  0
      .0931   181.92     289  0
      .0926   181.89     251  0
      .0923   181.87     239  0
      .0919   181.83     237  0
      .0916   181.80     241  0
      .0912   181.78     252  0
      .0908   181.74     268  0
      .0903   181.67     281  0
      .0900   181.62     228  0
      .0895   181.56     219  0
      .0890   181.47     192  0
      .0885   181.41     175  0
      .0882   181.35     173  0
      .0877   181.28     160  0
      .0874   181.22     158  0
      .0871   181.16     193  0
      .0868   181.11     145  0
      .0865   181.07     146  0
      .0863   181.03     195  0
      .0861   180.99     307  0
      .0862   180.83     308  0
      .0862   180.70     555  0
      .0864   180.49     839  0
      .0864   180.33    1127  0
      .0865   180.17    1434  0
      .0866   180.04    1719  0
      .0867   179.83    2094  0
      .0868   179.62    2414  0
      .0869   179.43    2741  0
      .0870   179.27    3023  0
      .0871   179.12    3341  0
      .0872   178.94    3977  0
      .0873   178.77    5134  0
      .0874   178.57   18880  0
      .0876   178.37   23049  0
      .0877   178.22   24189  0
      .0878   178.02   25576  0
      .0879   177.84   26972  0
      .0881   177.68   27622  0
      .0882   177.54   28250  0
      .0883   177.37   28741  0
      .0884   177.17   29144  0
      .0886   176.95   29866  0
      .0887   176.80   30267  0
      .0889   176.61   30870  0
      .0890   176.46   31251  0
      .0891   176.30   31437  0
      .0893   176.13   31644  0
      .0894   176.00   31783  0
      .0894   175.90   31909  0
      .0895   175.81   32016  0
      .0897   175.60   32192  0
      .0901   175.67   32210  0
      .0905   175.75   32214  0
      .0909   175.82   32216  0
      .0913   175.90   32215  0
      .0918   175.99   32225  0
      .0920   176.04   32218  0
      .0923   176.11   32220  0
      .0927   176.17   32222  0
      .0926   176.40   32194  0
      .0923   176.68   32195  0
      .0920   177.01   32224  0
      .0918   177.24   32219  0
      .0916   177.43   32193  0
      .0915   177.61   32207  0
      .0913   177.85   32204  0
      .0911   178.13   32223  0
      .0910   178.38   32221  0
      .0908   178.74   32208  0
      .0906   179.09   32213  0
      .0904   179.44   32211  0
      .0902   179.79   32209  0
      .0900   180.14   32205  0
      .0898   180.50   32203  0
      .0898   180.50   32203  0
      .0898   180.50   32203  0
      .0898   180.50   32203  0
      .0898   180.50   32203  0
      .0898   180.50   32203  0
      .0898   180.50   32203  0
      .0898   180.50   32203  0
      .0898   180.50   32203  0
      .0898   180.50   32203  0
      .0898   180.50   32203  0
 O1 
      .0719   197.64      54  0
      .0719   197.64      54  0
      .0719   197.64      54  0
      .0719   197.64      54  0
      .0719   197.64      54  0
      .0719   197.46      52  0
      .0720   197.31      49  0
      .0721   197.13      46  0
      .0721   196.96      42  0
      .0722   196.79      38  0
      .0723   196.62      35  0
      .0724   196.43      31  0
      .0724   196.26      28  0
      .0725   196.09      26  0
      .0725   195.94      24  0
      .0725   195.77      22  0
      .0725   195.62      19  0
      .0726   195.46      17  0
      .0726   195.31      13  0
      .0726   195.13       7  0
      .0727   194.96       8  0
      .0726   194.87       4  0
      .0726   194.76       5  0
      .0725   194.67      15  0
      .0725   194.58      11  0
      .0725   194.51       1  0
      .0724   194.42       2  0
      .0724   194.31      33  0
      .0723   194.17      70  0
      .0721   194.05      89  0
      .0719   193.95     103  0
      .0717   193.87     112  0
      .0714   193.71     110  0
      .0712   193.57     139  0
      .0710   193.46     119  0
      .0708   193.50     117  0
      .0706   193.52     136  0
      .0704   193.54     134  0
      .0703   193.57     152  0
      .0701   193.59     150  0
      .0699   193.62     231  0
      .0696   193.65     202  0
      .0694   193.68     203  0
      .0691   193.68     289  0
      .0688   193.68     251  0
      .0686   193.69     239  0
      .0683   193.68     237  0
      .0681   193.68     241  0
      .0678   193.68     252  0
      .0675   193.68     268  0
      .0672   193.68     281  0
      .0670   193.68     228  0
      .0667   193.68     219  0
      .0664   193.65     192  0
      .0661   193.62     175  0
      .0658   193.62     173  0
      .0655   193.61     160  0
      .0653   193.60     158  0
      .0651   193.58     193  0
      .0649   193.55     145  0
      .0647   193.53     146  0
      .0646   193.51     195  0
      .0644   193.50     307  0
      .0644   193.33     308  0
      .0645   193.20     555  0
      .0645   192.99     839  0
      .0645   192.84    1127  0
      .0646   192.70    1434  0
      .0646   192.58    1719  0
      .0646   192.40    2094  0
      .0647   192.22    2414  0
      .0647   192.03    2741  0
      .0647   191.87    3023  0
      .0648   191.72    3341  0
      .0648   191.54    3977  0
      .0648   191.37    5134  0
      .0649   191.17   18880  0
      .0650   190.97   23049  0
      .0650   190.82   24189  0
      .0650   190.62   25576  0
      .0651   190.44   26972  0
      .0651   190.28   27622  0
      .0652   190.14   28250  0
      .0652   189.97   28741  0
      .0652   189.77   29144  0
      .0653   189.55   29866  0
      .0653   189.40   30267  0
      .0654   189.21   30870  0
      .0654   189.06   31251  0
      .0655   188.91   31437  0
      .0655   188.73   31644  0
      .0656   188.60   31783  0
      .0656   188.50   31909  0
      .0656   188.41   32016  0
      .0657   188.20   32192  0
      .0660   188.24   32210  0
      .0662   188.28   32214  0
      .0664   188.30   32216  0
      .0667   188.30   32215  0
      .0670   188.30   32225  0
      .0671   188.30   32218  0
      .0673   188.30   32220  0
      .0675   188.30   32222  0
      .0676   188.53   32194  0
      .0676   188.85   32195  0
      .0676   189.22   32224  0
      .0676   189.48   32219  0
      .0676   189.69   32193  0
      .0676   189.89   32207  0
      .0677   190.14   32204  0
      .0678   190.39   32223  0
      .0680   190.62   32221  0
      .0682   190.95   32208  0
      .0684   191.26   32213  0
      .0686   191.58   32211  0
      .0688   191.89   32209  0
      .0690   192.19   32205  0
      .0692   192.50   32203  0
      .0692   192.50   32203  0
      .0692   192.50   32203  0
      .0692   192.50   32203  0
      .0692   192.50   32203  0
      .0692   192.50   32203  0
      .0692   192.50   32203  0
      .0692   192.50   32203  0
      .0692   192.50   32203  0
      .0692   192.50   32203  0
      .0692   192.50   32203  0
 M2 
      .7163   354.53      54  0
      .7163   354.53      54  0
      .7163   354.53      54  0
      .7163   354.53      54  0
      .7163   354.53      54  0
      .7078   354.33      52  0
      .7003   354.16      49  0
      .6912   353.95      46  0
      .6827   353.74      42  0
      .6745   353.53      38  0
      .6660   353.32      35  0
      .6565   353.08      31  0
      .6478   352.86      28  0
      .6379   352.68      26  0
      .6295   352.51      24  0
      .6202   352.33      22  0
      .6118   352.15      19  0
      .6023   351.95      17  0
      .5938   351.76      13  0
      .5837   351.54       7  0
      .5743   351.32       8  0
      .5680   351.27       4  0
      .5607   351.22       5  0
      .5544   351.18      15  0
      .5486   351.13      11  0
      .5438   351.10       1  0
      .5377   351.05       2  0
      .5299   350.99      33  0
      .5208   350.91      70  0
      .5122   350.94      89  0
      .5051   351.00     103  0
      .4990   351.05     112  0
      .4878   351.14     110  0
      .4789   351.20     139  0
      .4716   351.25     119  0
      .4659   351.48     117  0
      .4622   351.61     136  0
      .4571   351.81     134  0
      .4522   352.00     152  0
      .4476   352.21     150  0
      .4452   352.35     231  0
      .4414   352.56     202  0
      .4381   352.76     203  0
      .4358   352.92     289  0
      .4340   353.06     251  0
      .4326   353.17     239  0
      .4312   353.29     237  0
      .4300   353.39     241  0
      .4288   353.51     252  0
      .4273   353.63     268  0
      .4257   353.73     281  0
      .4247   353.78     228  0
      .4231   353.89     219  0
      .4217   354.02     192  0
      .4204   354.13     175  0
      .4193   354.17     173  0
      .4181   354.21     160  0
      .4172   354.24     158  0
      .4162   354.28     193  0
      .4155   354.32     145  0
      .4148   354.37     146  0
      .4140   354.41     195  0
      .4135   354.45     307  0
      .4141   354.32     308  0
      .4145   354.23     555  0
      .4153   354.07     839  0
      .4158   353.95    1127  0
      .4163   353.86    1434  0
      .4167   353.77    1719  0
      .4173   353.64    2094  0
      .4180   353.51    2414  0
      .4185   353.38    2741  0
      .4190   353.26    3023  0
      .4195   353.16    3341  0
      .4201   353.03    3977  0
      .4206   352.92    5134  0
      .4212   352.81   18880  0
      .4218   352.69   23049  0
      .4222   352.61   24189  0
      .4229   352.50   25576  0
      .4235   352.40   26972  0
      .4240   352.30   27622  0
      .4245   352.22   28250  0
      .4250   352.11   28741  0
      .4257   351.96   29144  0
      .4264   351.81   29866  0
      .4269   351.70   30267  0
      .4276   351.57   30870  0
      .4283   351.47   31251  0
      .4289   351.37   31437  0
      .4296   351.25   31644  0
      .4301   351.17   31783  0
      .4305   351.10   31909  0
      .4309   351.04   32016  0
      .4317   350.90   32192  0
      .4324   350.86   32210  0
      .4331   350.83   32214  0
      .4337   350.79   32216  0
      .4346   350.75   32215  0
      .4356   350.70   32225  0
      .4366   350.70   32218  0
      .4380   350.70   32220  0
      .4396   350.70   32222  0
      .4475   351.07   32194  0
      .4580   351.58   32195  0
      .4701   352.13   32224  0
      .4785   352.50   32219  0
      .4854   352.79   32193  0
      .4921   353.06   32207  0
      .4997   353.40   32204  0
      .5075   353.76   32223  0
      .5144   354.07   32221  0
      .5244   354.51   32208  0
      .5340   354.92   32213  0
      .5437   355.31   32211  0
      .5535   355.68   32209  0
      .5632   356.05   32205  0
      .5730   356.40   32203  0
      .5730   356.40   32203  0
      .5730   356.40   32203  0
      .5730   356.40   32203  0
      .5730   356.40   32203  0
      .5730   356.40   32203  0
      .5730   356.40   32203  0
      .5730   356.40   32203  0
      .5730   356.40   32203  0
      .5730   356.40   32203  0
      .5730   356.40   32203  0
 N2 
      .1518   342.34      54  0
      .1518   342.34      54  0
      .1518   342.34      54  0
      .1518   342.34      54  0
      .1518   342.34      54  0
      .1503   342.10      52  0
      .1490   341.88      49  0
      .1474   341.61      46  0
      .1460   341.36      42  0
      .1446   341.10      38  0
      .1431   340.84      35  0
      .1415   340.54      31  0
      .1400   340.27      28  0
      .1382   340.04      26  0
      .1367   339.83      24  0
      .1350   339.59      22  0
      .1335   339.38      19  0
      .1319   339.13      17  0
      .1303   338.90      13  0
      .1285   338.61       7  0
      .1268   338.35       8  0
      .1257   338.26       4  0
      .1243   338.17       5  0
      .1232   338.09      15  0
      .1221   338.01      11  0
      .1212   337.95       1  0
      .1201   337.86       2  0
      .1186   337.75      33  0
      .1170   337.62      70  0
      .1154   337.56      89  0
      .1140   337.54     103  0
      .1129   337.51     112  0
      .1107   337.46     110  0
      .1091   337.42     139  0
      .1077   337.38     119  0
      .1066   337.51     117  0
      .1059   337.60     136  0
      .1049   337.72     134  0
      .1040   337.83     152  0
      .1031   337.95     150  0
      .1026   338.04     231  0
      .1018   338.17     202  0
      .1012   338.30     203  0
      .1007   338.38     289  0
      .1004   338.46     251  0
      .1001   338.52     239  0
      .0998   338.58     237  0
      .0996   338.64     241  0
      .0993   338.70     252  0
      .0990   338.77     268  0
      .0987   338.83     281  0
      .0985   338.86     228  0
      .0982   338.91     219  0
      .0979   338.95     192  0
      .0976   338.99     175  0
      .0974   339.02     173  0
      .0971   339.06     160  0
      .0969   339.09     158  0
      .0967   339.11     193  0
      .0965   339.12     145  0
      .0964   339.14     146  0
      .0962   339.16     195  0
      .0961   339.17     307  0
      .0963   339.07     308  0
      .0964   338.99     555  0
      .0966   338.86     839  0
      .0968   338.76    1127  0
      .0969   338.68    1434  0
      .0970   338.62    1719  0
      .0972   338.52    2094  0
      .0974   338.41    2414  0
      .0976   338.33    2741  0
      .0977   338.26    3023  0
      .0979   338.19    3341  0
      .0981   338.12    3977  0
      .0982   338.04    5134  0
      .0984   337.96   18880  0
      .0986   337.87   23049  0
      .0988   337.81   24189  0
      .0990   337.72   25576  0
      .0992   337.65   26972  0
      .0994   337.58   27622  0
      .0996   337.52   28250  0
      .0997   337.44   28741  0
      .1000   337.36   29144  0
      .1002   337.26   29866  0
      .1004   337.20   30267  0
      .1006   337.14   30870  0
      .1009   337.09   31251  0
      .1011   337.03   31437  0
      .1013   336.96   31644  0
      .1015   336.90   31783  0
      .1016   336.85   31909  0
      .1017   336.81   32016  0
      .1020   336.70   32192  0
      .1021   336.74   32210  0
      .1023   336.78   32214  0
      .1024   336.80   32216  0
      .1026   336.80   32215  0
      .1028   336.80   32225  0
      .1030   336.84   32218  0
      .1033   336.91   32220  0
      .1036   336.97   32222  0
      .1052   337.45   32194  0
      .1075   338.08   32195  0
      .1100   338.76   32224  0
      .1118   339.22   32219  0
      .1133   339.59   32193  0
      .1147   339.93   32207  0
      .1163   340.36   32204  0
      .1179   340.83   32223  0
      .1194   341.24   32221  0
      .1214   341.81   32208  0
      .1235   342.34   32213  0
      .1255   342.85   32211  0
      .1276   343.35   32209  0
      .1296   343.83   32205  0
      .1317   344.30   32203  0
      .1317   344.30   32203  0
      .1317   344.30   32203  0
      .1317   344.30   32203  0
      .1317   344.30   32203  0
      .1317   344.30   32203  0
      .1317   344.30   32203  0
      .1317   344.30   32203  0
      .1317   344.30   32203  0
      .1317   344.30   32203  0
      .1317   344.30   32203  0
 S2 
      .1112    18.17      54  0
      .1112    18.17      54  0
      .1112    18.17      54  0
      .1112    18.17      54  0
      .1112    18.17      54  0
      .1101    17.97      52  0
      .1091    17.78      49  0
      .1080    17.55      46  0
      .1069    17.33      42  0
      .1058    17.11      38  0
      .1047    16.88      35  0
      .1035    16.62      31  0
      .1023    16.38      28  0
      .1010    16.12      26  0
      .0999    15.92      24  0
      .0986    15.68      22  0
      .0975    15.45      19  0
      .0962    15.20      17  0
      .0950    14.96      13  0
      .0937    14.67       7  0
      .0924    14.39       8  0
      .0915    14.26       4  0
      .0905    14.10       5  0
      .0897    13.97      15  0
      .0889    13.84      11  0
      .0883    13.73       1  0
      .0874    13.58       2  0
      .0864    13.40      33  0
      .0851    13.18      70  0
      .0840    13.06      89  0
      .0830    12.99     103  0
      .0822    12.93     112  0
      .0807    12.80     110  0
      .0794    12.69     139  0
      .0785    12.60     119  0
      .0777    12.67     117  0
      .0773    12.71     136  0
      .0766    12.78     134  0
      .0760    12.84     152  0
      .0755    12.95     150  0
      .0752    13.07     231  0
      .0748    13.25     202  0
      .0745    13.42     203  0
      .0744    13.63     289  0
      .0744    13.83     251  0
      .0743    13.98     239  0
      .0744    14.14     237  0
      .0744    14.27     241  0
      .0744    14.41     252  0
      .0744    14.58     268  0
      .0745    14.75     281  0
      .0745    14.86     228  0
      .0746    15.04     219  0
      .0747    15.22     192  0
      .0748    15.37     175  0
      .0748    15.47     173  0
      .0749    15.58     160  0
      .0750    15.67     158  0
      .0750    15.75     193  0
      .0751    15.81     145  0
      .0752    15.88     146  0
      .0752    15.95     195  0
      .0753    16.00     307  0
      .0755    15.92     308  0
      .0756    15.85     555  0
      .0759    15.74     839  0
      .0761    15.67    1127  0
      .0763    15.61    1434  0
      .0764    15.56    1719  0
      .0766    15.49    2094  0
      .0769    15.41    2414  0
      .0771    15.33    2741  0
      .0773    15.26    3023  0
      .0774    15.19    3341  0
      .0777    15.12    3977  0
      .0779    15.06    5134  0
      .0781    15.00   18880  0
      .0784    14.95   23049  0
      .0786    14.91   24189  0
      .0789    14.85   25576  0
      .0791    14.80   26972  0
      .0793    14.75   27622  0
      .0795    14.71   28250  0
      .0798    14.68   28741  0
      .0801    14.65   29144  0
      .0804    14.62   29866  0
      .0806    14.60   30267  0
      .0809    14.54   30870  0
      .0812    14.49   31251  0
      .0815    14.44   31437  0
      .0818    14.39   31644  0
      .0821    14.37   31783  0
      .0823    14.35   31909  0
      .0824    14.33   32016  0
      .0828    14.30   32192  0
      .0826    14.26   32210  0
      .0824    14.23   32214  0
      .0823    14.21   32216  0
      .0821    14.25   32215  0
      .0819    14.29   32225  0
      .0819    14.41   32218  0
      .0819    14.61   32220  0
      .0820    14.82   32222  0
      .0836    16.25   32194  0
      .0861    18.12   32195  0
      .0890    20.12   32224  0
      .0910    21.43   32219  0
      .0927    22.47   32193  0
      .0944    23.42   32207  0
      .0965    24.60   32204  0
      .0986    25.85   32223  0
      .1006    26.91   32221  0
      .1034    28.38   32208  0
      .1063    29.71   32213  0
      .1091    30.98   32211  0
      .1121    32.18   32209  0
      .1151    33.32   32205  0
      .1181    34.40   32203  0
      .1181    34.40   32203  0
      .1181    34.40   32203  0
      .1181    34.40   32203  0
      .1181    34.40   32203  0
      .1181    34.40   32203  0
      .1181    34.40   32203  0
      .1181    34.40   32203  0
      .1181    34.40   32203  0
      .1181    34.40   32203  0
      .1181    34.40   32203  0
100.0                      ! ANGINN : INNER ANGLE THRESHOLD
0 4.00 35.0 120            ! NOUTE,TOUTSE,TOUTFE,NSPOOLE:ELEV STATION OUTPUT INFO (UNIT  61)
 0                         ! TOTAL NUMBER OF ELEVATION RECORDING STATIONS
0 4.00 35.0 120            ! NOUTE,TOUTSE,TOUTFE,NSPOOLE:VEL STATION OUTPUT INFO (UNIT  62)
 0                         ! TOTAL NUMBER OF VELOCITY RECORDING STATIONS
0 4 35 120                 ! NOUTGE,TOUTSGE,TOUTFGE,NSPOOLGE : GLOBAL ELEV OUTPUT (UNIT  63)
0 4 35 120                 ! NOUTGV,TOUTSGV,TOUTFGV,NSPOOLGV : GLOBAL VEL  OUTPUT (UNIT  64)
 30                                     ! NHARF - NUMBER OF FREQENCIES IN HARMONIC ANALYSIS
 STEADY                                 ! HAFNAM - ALPHA DESCRIPTOR FOR CONSTITUENT NAME
 0.000000000000000 1.0 0.0              ! FREQUENCY, NODAL FACTOR, EQUILIBRIUM ARGUMENT (DEG)
 MN
 0.000002639203296 1.0 0.0
 SM
 0.000004925202335 1.0 0.0
 01
 0.000067597751162 1.0 0.0
 K1
 0.000072921165921 1.0 0.0
 SO1
 0.000077846368256 1.0 0.0
 MNS2
 0.000132954511452 1.0 0.0
 2MN2?
 0.000135240510491 1.0 0.0
 N2
 0.000137879713787 1.0 0.0
 M2
 0.000140518917083 1.0 0.0
 2MN2
 0.000143158120379 1.0 0.0
 S2
 0.000145444119418 1.0 0.0
 MSN2
 0.000148083322714 1.0 0.0
 2SM2
 0.000150369321753 1.0 0.0
 MO3
 0.000208116668245 1.0 0.0
 KO3
 0.000213440083004 1.0 0.0
 SK3
 0.000218365285339 1.0 0.0
 2MNS4
 0.000273473428535 1.0 0.0
 3MS4
 0.000276112631831 1.0 0.0
 MN4
 0.000278398630870 1.0 0.0
 M4
 0.000281037834166 1.0 0.0
 3MN4
 0.000283677037462 1.0 0.0
 MS4
 0.000285963036501 1.0 0.0
 2MSN4
 0.000288602239797 1.0 0.0
 2NM6
 0.000416278344658 1.0 0.0
 2MN6
 0.00041891754795  1.0 0.0
 M6
 0.000421556751249 1.0 0.0
 MSN6
 0.000423842750288 1.0 0.0
 2MS6
 0.000426481953584 1.0 0.0
 2SM6
 0.000431407155919 1.0 0.0
 10.0  40.0  360  0.0000000 ! THAS, THAF, NHAINC,FMV
 0 0 1 1                    ! NHASE,NHASV,NHAGE,NHAGV
 1  8640                    ! NHSTAR,NHSINC
 1  0  1e-5  25             ! ITITER,ISLDIA,CONVCR,ITMAX
